Version 4
SHEET 1 932 680
WIRE 320 64 256 64
WIRE 336 64 320 64
WIRE 464 64 400 64
WIRE 592 64 464 64
WIRE 704 64 656 64
WIRE 816 64 704 64
WIRE 832 64 816 64
WIRE 208 96 48 96
WIRE 400 128 336 128
WIRE 464 144 464 128
WIRE 464 144 256 144
WIRE 624 144 624 112
WIRE 624 144 464 144
WIRE 704 144 704 128
WIRE 704 144 624 144
WIRE 784 144 704 144
WIRE 320 160 320 64
WIRE 400 160 320 160
WIRE 464 160 464 144
WIRE 704 160 704 144
WIRE 784 160 784 144
WIRE 208 176 48 176
WIRE 624 176 624 144
WIRE 336 224 336 128
WIRE 336 224 256 224
WIRE 464 224 400 224
WIRE 592 224 464 224
WIRE 704 224 656 224
WIRE 816 224 704 224
WIRE 832 224 816 224
FLAG 784 160 0
FLAG 912 64 0
FLAG 912 224 0
FLAG 816 64 V+
FLAG 816 224 V-
SYMBOL voltage 48 80 R0
WINDOW 0 -69 55 Left 2
WINDOW 3 24 96 Invisible 2
WINDOW 123 0 0 Left 0
WINDOW 39 24 44 Left 2
SYMATTR InstName V1
SYMATTR Value SINE(0 155.56 60)
SYMBOL ind2 272 48 M0
WINDOW 0 -3 36 Right 2
WINDOW 3 -31 61 Left 2
SYMATTR InstName L1
SYMATTR Value 1µ
SYMATTR Type ind
SYMATTR SpiceLine Rser=0.01
SYMBOL ind2 272 128 M0
WINDOW 0 -30 48 Left 2
WINDOW 3 -31 74 Left 2
SYMATTR InstName L2
SYMATTR Value 1µ
SYMATTR Type ind
SYMATTR SpiceLine Rser=0.01
SYMBOL ind2 192 80 R0
WINDOW 0 -29 44 Left 2
WINDOW 3 -44 69 Left 2
SYMATTR InstName L3
SYMATTR Value 100µ
SYMATTR Type ind
SYMATTR SpiceLine Rser=0.01
SYMBOL diode 336 80 R270
WINDOW 0 32 32 Invisible 2
WINDOW 3 0 32 Invisible 2
SYMATTR InstName D1
SYMBOL diode 400 240 M270
WINDOW 0 32 32 Invisible 2
WINDOW 3 0 32 Invisible 2
SYMATTR InstName D2
SYMBOL diode 416 128 R180
WINDOW 0 24 64 Invisible 2
WINDOW 3 24 0 Invisible 2
SYMATTR InstName D3
SYMBOL diode 416 224 R180
WINDOW 0 24 64 Invisible 2
WINDOW 3 24 0 Invisible 2
SYMATTR InstName D4
SYMBOL polcap 448 64 R0
SYMATTR InstName C1
SYMATTR Value 47m
SYMBOL polcap 448 160 R0
SYMATTR InstName C2
SYMATTR Value 47m
SYMBOL AutoGenerated\\LM7812 624 80 R0
WINDOW 0 0 -32 Invisible 2
WINDOW 3 0 -60 Top 2
SYMATTR InstName U1
SYMBOL AutoGenerated\\LM7912 624 208 R0
WINDOW 0 0 -32 Invisible 2
SYMATTR InstName U2
SYMBOL polcap 688 64 R0
SYMATTR InstName C3
SYMATTR Value 470µ
SYMBOL polcap 688 160 R0
SYMATTR InstName C4
SYMATTR Value 470µ
SYMBOL res 928 48 R90
WINDOW 0 0 56 VBottom 2
WINDOW 3 32 56 VTop 2
SYMATTR InstName R1
SYMATTR Value 10
SYMBOL res 928 208 R90
WINDOW 0 0 56 VBottom 2
WINDOW 3 32 56 VTop 2
SYMATTR InstName R2
SYMATTR Value 10
TEXT -8 224 Left 2 !.tran 0 0.6 0 0.001
TEXT 160 40 Left 2 !K L1 L2 L3 1
